&setup_nml
    days_per_year = 365
    year_init = 1
    istep0 = 0
    dt = 3600
    npt = 8760.0
    ndyn_dt = 1
    runtype = 'continue'
    ice_ic = 'default'
    restart = .true.
    restart_dir = './RESTART/'
    restart_file = 'iced'
    pointer_file = './RESTART/ice.restart_file'
    dumpfreq = 'y'
    dumpfreq_n = 1
    diagfreq = 24
    diag_type = 'file'
    diag_file = 'ice_diag.d'
    print_global = .false.
    print_points = .false.
    latpnt(1:2) = 90.0, -65.0
    lonpnt(1:2) = 0.0, -45.0
    dbug = .false.
    history_dir = './HISTORY/'
    write_ic = .false.
    incond_dir = './HISTORY/'
    incond_file = 'iceh_ic'
    history_file = 'iceh'
    history_format = 'nc'
    histfreq = 'd', 'm', 'x', 'x', 'x'
    histfreq_n = 1, 1, 1, 1, 1
    hist_avg = .true.
/

&grid_nml
    grid_format = 'nc'
    grid_type = 'tripole'
    grid_file = './INPUT/grid.nc'
    kmt_file = './INPUT/kmt.nc'
    kcatbound = 0
/

&domain_nml
    nprocs = 12
    processor_shape = 'slenderX1'
    distribution_type = 'cartesian'
    distribution_wght = 'latitude'
    ew_boundary_type = 'cyclic'
    ns_boundary_type = 'tripole'
/

&tracer_nml
    tr_iage = .false.
    restart_age = .false.
    tr_lvl = .false.
    restart_lvl = .false.
    tr_pond = .false.
    restart_pond = .false.
/

&ice_nml
    kitd = 1
    kdyn = 1
    ndte = 120
    kstrength = 1
    krdg_partic = 1
    krdg_redist = 1
    mu_rdg = 3
    advection = 'remap'
    heat_capacity = .false.
    conduct = 'bubbly'
    shortwave = 'default'
    albedo_type = 'default'
    albicev = 0.86
    albicei = 0.44
    albsnowv = 0.98
    albsnowi = 0.7
    ahmax = 0.1
    snowpatch = 0.01
    dt_mlt = 1.0
    dalb_mlt = -0.02
    awtvdr = 0.00318
    awtidr = 0.00182
    awtvdf = 0.63282
    awtidf = 0.36218
    r_ice = 0.0
    r_pnd = 0.0
    r_snw = 0.0
    atmbndy = 'default'
    fyear_init = 1
    ycycle = 1
    atm_data_format = 'nc'
    atm_data_type = 'default'
    atm_data_dir = 'unknown_atm_data_dir'
    calc_strair = .false.
    calc_tsfc = .false.
    precip_units = 'mks'
    tfrzpt = 'linear_S'
    tocnfrz = -1.8
    ustar_min = 0.0005
    cosw = 0.96
    sinw = 0.28
    dragio = 0.00536
    chio = 0.004
    iceruf = 0.0005
    update_ocn_f = .true.
    oceanmixed_ice = .false.
    ocn_data_format = 'nc'
    sss_data_type = 'default'
    sst_data_type = 'default'
    ocn_data_dir = 'unknown_ocn_data_dir'
    oceanmixed_file = 'unknown_oceanmixed_file'
    restore_sst = .false.
    trestore = 0
    restore_ice = .false.
/

&icefields_nml
    f_tmask = .true.
    f_tarea = .true.
    f_uarea = .true.
    f_dxt = .false.
    f_dyt = .false.
    f_dxu = .false.
    f_dyu = .false.
    f_htn = .false.
    f_hte = .false.
    f_angle = .true.
    f_anglet = .true.
    f_ncat = .true.
    f_vgrdi = .true.
    f_vgrds = .true.
    f_bounds = .false.
    f_hi = 'm'
    f_hs = 'm'
    f_tsfc = 'x'
    f_aice = 'm'
    f_uvel = 'm'
    f_vvel = 'm'
    f_fswdn = 'm'
    f_flwdn = 'm'
    f_snow = 'x'
    f_snow_ai = 'm'
    f_rain = 'x'
    f_rain_ai = 'm'
    f_sst = 'm'
    f_sss = 'm'
    f_uocn = 'x'
    f_vocn = 'x'
    f_frzmlt = 'x'
    f_fswfac = 'x'
    f_fswabs = 'x'
    f_fswabs_ai = 'm'
    f_albsni = 'x'
    f_alvdr = 'x'
    f_alidr = 'x'
    f_albice = 'x'
    f_albsno = 'x'
    f_albpnd = 'x'
    f_coszen = 'x'
    f_flat = 'x'
    f_flat_ai = 'm'
    f_fsens = 'x'
    f_fsens_ai = 'm'
    f_flwup = 'x'
    f_flwup_ai = 'm'
    f_evap = 'x'
    f_evap_ai = 'm'
    f_tair = 'x'
    f_tref = 'x'
    f_qref = 'x'
    f_congel = 'x'
    f_frazil = 'x'
    f_snoice = 'x'
    f_meltt = 'x'
    f_meltb = 'x'
    f_meltl = 'x'
    f_fresh = 'x'
    f_fresh_ai = 'm'
    f_fsalt = 'x'
    f_fsalt_ai = 'x'
    f_fhocn = 'x'
    f_fhocn_ai = 'm'
    f_fswthru = 'x'
    f_fswthru_ai = 'x'
    f_fsurf_ai = 'm'
    f_fcondtop_ai = 'm'
    f_fmeltt_ai = 'm'
    f_strairx = 'm'
    f_strairy = 'm'
    f_strtltx = 'm'
    f_strtlty = 'm'
    f_strcorx = 'm'
    f_strcory = 'm'
    f_strocnx = 'm'
    f_strocny = 'm'
    f_strintx = 'm'
    f_strinty = 'm'
    f_strength = 'm'
    f_divu = 'm'
    f_shear = 'm'
    f_sig1 = 'x'
    f_sig2 = 'x'
    f_dvidtt = 'x'
    f_dvidtd = 'x'
    f_daidtt = 'x'
    f_daidtd = 'x'
    f_mlt_onset = 'm'
    f_frz_onset = 'm'
    f_dardg1dt = 'x'
    f_dardg2dt = 'm'
    f_dvirdgdt = 'x'
    f_opening = 'm'
    f_hisnap = 'x'
    f_aisnap = 'x'
    f_trsig = 'x'
    f_icepresent = 'm'
    f_iage = 'x'
    f_alvl = 'x'
    f_vlvl = 'x'
    f_ardg = 'x'
    f_vrdg = 'x'
    f_aicen = 'm'
    f_vicen = 'm'
    f_tinz = 'x'
    f_tsnz = 'x'
    f_fsurfn_ai = 'm'
    f_fcondtopn_ai = 'm'
    f_fmelttn_ai = 'm'
    f_flatn_ai = 'm'
    f_apondn = 'x'
/
